/*--------------------------------*- C++ -*----------------------------------*\
| =========                 |                                                 |
| \\      /  F ield         | OpenFOAM: The Open Source CFD Toolbox           |
|  \\    /   O peration     | Version:  5                                     |
|   \\  /    A nd           | Web:      www.OpenFOAM.org                      |
|    \\/     M anipulation  |                                                 |
\*---------------------------------------------------------------------------*/
FoamFile
{
    version     2.0;
    format      ascii;
    class       volScalarField;
    object      p_rgh;
}
// * * * * * * * * * * * * * * * * * * * * * * * * * * * * * * * * * * * * * //

dimensions      [1 -1 -2 0 0 0 0];

internalField   uniform 0;

boundaryField
{
    leftWall
    {
	//type            symmetryPlane;
        type            fixedFluxPressure;
        value           uniform 0;
    }

    rightWall
    {
	//type            symmetryPlane;
        type            fixedFluxPressure;
        value           uniform 0;
    }

    bottomWall
    {
	//type            symmetryPlane;
        type            fixedFluxPressure;
        value           uniform 0;
    }

    topWall
    {
	    //type            symmetryPlane;
        // type            fixedFluxPressure;
        // value           uniform 0;
        type            totalPressure;
        p0              uniform 0;

    }

    backAndFront
    {
        type            empty;
    }
}

// ************************************************************************* //
